LAMMPS (14 Jun 2016)
units                 lj
atom_style            bond
bond_style  hybrid harmonic_upper_bound harmonic_lower_bound
boundary              f f f
special_bonds lj/coul 1.0 1.0 1.0
pair_style lj/cut 200
read_data input.data
  orthogonal box = (-6000 -6000 -6000) to (6000 6000 6000)
  reading atoms ...
  20 atoms
  scanning bonds ...
  reading bonds ...
  10 bonds
mass * 1.0
group beads type != 2
20 atoms in group beads
group dummy type 2
0 atoms in group dummy
neighbor 200 bin
neigh_modify every 10 check yes
neigh_modify one 2000 page 40000
fix 1 dummy setforce 0.0 0.0 0.0
neigh_modify exclude group dummy all check no
fix 2 beads nve/limit 5.0
fix 3 beads langevin 20.0 1.0 50.0 38611645
timestep 0.25
region mySphere sphere 0.0 0.0 0.0 5200.0
fix wall beads wall/region mySphere harmonic 10.0 1.0  200
pair_coeff * * 1.0 178.25311942959
pair_modify shift yes
dump   id beads custom 20000 out.lammpstrj id type x y z fx fy fz
thermo 1000
run 20000
  1 neighbor list requests
  update every 10 steps, delay 10 steps, check no
Step Temp E_pair E_mol TotEng Press
0            0            0    1445538.1    1445538.1 -1.364878e-05
Averages over the last 11 of 21 rows, steps 10000 to 20000:
Temp E_pair E_mol TotEng Press
5.9912 0.0876308 0.0196164 8.64471 3.37157e-11
Loop time of 0.610263 on 1 procs for 20000 steps with 20 atoms

min_style cg
minimize 0.0001 1e-06 500 500
  1 neighbor list requests
  update every 1 steps, delay 0 steps, check yes
Step Temp E_pair E_mol TotEng Press
20000    1.7357727            0            0    2.4734761 1.9085463e-11
Loop time of 9.799e-05 on 1 procs for 1 steps with 20 atoms

Minimization stats:
  Stopping criterion = search direction is not downhill
  Energy initial, next-to-last, final =
  Force two-norm initial, final = 0 0
  Force max component initial, final = 0 0
  Final line search alpha, max atom move = 0 0
  Iterations, force evaluations = 1 0
